*NODE, NSET=NALL
1, 0.0, 0.0, 0.0
2, 5.0, 0.0, 0.0
3, 0.0, 4.0, 0.0
4, 5.0, 4.0, 0.0
*ELEMENT, TYPE=B31, ELSET=EALL
1, 1, 3
2, 2, 4
3, 3, 4
*MATERIAL, NAME=STEEL
*ELASTIC
210000, 0.3
*DENSITY
7850
*BEAM SECTION, ELSET=EALL, MATERIAL=STEEL, SECTION=RECT
200, 200
*STEP
*STATIC
*BOUNDARY
1, 1, 6, 0.0
2, 1, 6, 0.0
*CLOAD
3, 1, 10000.0
*NODE PRINT, NSET=NALL
U
*SECTION PRINT, ELSET=EALL, SECTION=1
*END STEP
