*NODE, NSET=NALL
1, 0., 0., 0.
2, 1., 0., 0.
3, 1., 1., 0.
4, 0., 1., 0.
5, 0., 0., 1.
6, 1., 0., 1.
7, 1., 1., 1.
8, 0., 1., 1.
*ELEMENT, TYPE=C3D8, ELSET=EALL
1, 1, 2, 3, 4, 5, 6, 7, 8
*MATERIAL, NAME=STEEL
*ELASTIC
210000., .3
*SOLID SECTION, ELSET=EALL, MATERIAL=STEEL
*STEP
*STATIC
*BOUNDARY
1, 1, 3, 0.
2, 2, 3, 0.
3, 3, 3, 0.
4, 1, 1, 0.
4, 3, 3, 0.
5, 1, 2, 0.
8, 1, 1, 0.
*CLOAD
5, 3, 100.
6, 3, 100.
7, 3, 100.
8, 3, 100.
*NODE PRINT, NSET=NALL
U
*END STEP
