*NODE, NSET=NALL
1, 0.0, 0.0, 0.0
2, 6.0, 0.0, 0.0
3, 0.0, 3.5, 0.0
4, 6.0, 3.5, 0.0
*ELEMENT, TYPE=B31, ELSET=EALL
1, 1, 3
2, 2, 4
3, 3, 4
*BEAM SECTION, ELSET=EALL, MATERIAL=STEEL_A36, SECTION=RECT
0.30, 0.30
0.0, 0.0, 1.0
*MATERIAL, NAME=STEEL_A36
*ELASTIC
200000000000.0, 0.3
*DENSITY
7850.0
*BOUNDARY
1, 1, 6, 0.0
2, 1, 6, 0.0
*STEP
*STATIC
*CLOAD
3, 1, 15000.0
3, 2, -25000.0
4, 2, -25000.0
*NODE PRINT, NSET=NALL
U
*EL FILE, SECTION FORCES, OUTPUT=2D
S
*END STEP
