*NODE
1, 0, 0, 0
2, 10, 0, 0
3, 10, 5, 0
4, 0, 5, 0
5, 0, 0, 5
6, 10, 0, 5
7, 10, 5, 5
8, 0, 5, 5
*ELEMENT, TYPE=C3D8, ELSET=BEAM
1, 1, 2, 3, 4, 5, 6, 7, 8
*MATERIAL, NAME=STEEL
*ELASTIC
210000, 0.3
*BOUNDARY
1, 1, 3
4, 1, 3
5, 1, 3
8, 1, 3
*STEP
*STATIC
*CLOAD
2, 2, -100
3, 2, -100
6, 2, -100
7, 2, -100
*NODE FILE
U
*EL FILE
S
*END STEP
